14
Lattice= "7.67932 0.0 0.0 0.0 3.83966 0.0 0.0 0.0 17.0241" Properties=species:S:1:pos:R:3 pbc="T T T"
Si       1.21947600       0.00000000       4.26493000
Si       6.45984400       0.00000000       4.98785000
Si       1.80041700       1.91983000       3.40465000
Si       5.87890300       1.91983000       3.40465000
Si       3.83966000       1.91983000       2.15574000
Si       0.00000000       1.91983000       1.90044000
Si       3.83966000       0.00000000       0.74391000
Si       0.00000000       0.00000000       0.59721000
Si       1.91983000       0.00000000      -0.67875000
Si       5.75949000       0.00000000      -0.67875000
H        1.91983000      -1.20862950      -1.53292488
H        1.91983000       1.20862950      -1.53292488
H        5.75949000      -1.20862950      -1.53292488
H        5.75949000       1.20862950      -1.53292488
